54

 H            -0.689712    1.51676    2.02485             0         0           0
 H               3.0363    1.06446     2.9303           0         0           0
 H             0.975778   0.935256    1.35348           0         0           0
 H              1.64322    2.12177 -0.0872166           0         0           0 
 H             0.574133    0.65288    3.52808           0         0           0
 H              0.49698   0.290701   0.664139           0         0           0 
 H              3.72877    1.51618    1.94637           0         0           0 
 H              2.51534    3.20295    1.24923           0         0           0
 H            -0.107899    2.04579    2.82315           0         0           0
 H              2.39269   0.184335     2.7327           0         0           0
 H              1.43935  -0.271867    2.52187           0         0           0
 H             0.993631    0.67257    2.44224           0         0           0
 H              1.51119   0.250955    3.53394           0         0           0
 H              1.87973    1.06403    2.93453           0         0           0
 H              1.94144   0.614547    1.92986           0         0           0
 H           -0.0238165    1.51979     3.7445           0         0           0
 H              2.33896  -0.364131    1.79426            0         0           0
 H             0.892847    1.61191    3.02523           0         0           0
 H              3.05398    2.34561    1.66407          0         0           0
 H              1.29253 -0.0979641    1.31511           0         0           0
 H             0.367883     1.4697    2.00153           0         0           0
 H             0.454686  -0.272432    2.97645           0         0           0
 H              3.19835    2.18495    2.73003           0         0           0
 H              2.27934    1.23577   0.103131           0         0           0
 H           -0.0254921   0.794901    2.71502           0         0           0
 H              2.53365    1.80888    3.56476           0         0           0
 H              1.58009   0.306047   0.253842           0         0           0
 H             -1.03571    1.45709    3.06911           0         0           0
 H             0.944223    2.04069    1.27602            0         0           0
 H               2.5739    2.32618   0.596952            0         0           0
 H             0.290032    3.36356    2.28559           0         0           0
 H              1.51614    3.33273    1.95577          0         0           0
 H              2.27882   0.874273    3.90653           0         0           0
 H              1.87923    2.19313    2.82133           0         0           0
 H              1.92493    1.35236    1.12923            0         0           0
 H           -0.0683815    2.44213    1.74644           0         0           0
 H              2.96866   0.652075    1.81993           0         0           0
 H              1.30843   -1.10087    1.79192          0         0           0
 H              2.47273    1.53988    2.07645          0         0           0
 H              2.44336   0.327717   0.962444          0         0           0
 H              2.51765    2.97527    2.46525           0         0           0
 H              2.98242    1.41512   0.994079           0         0           0
 H             -0.23529    0.65545    1.59174           0         0           0
 H              1.60828    2.83154   0.732809            0         0           0
 H             0.685142    3.13701    1.28829            0         0           0
 H              1.08493    1.33419   0.344496            0         0           0
 H              2.01305    2.36901    1.67165           0         0           0
 H              0.67807    2.48375   0.326417          0         0           0
 H             0.906948    2.53935    2.33399           0         0           0
 H           0.00125708    1.62353   0.992138           0         0           0
 H              1.09449    2.67598     3.4564            0         0           0
 H              1.43129    1.66509     3.9745            0         0           0
 H              1.43038    1.56314    2.00962          0         0           0
 H             0.399391  -0.106678    1.96548           0         0           0
